Circuit: * C:\Users\nicola\Documents\git\AnalogSynth\EG\Simulation\EG.asc

Limiting rise time of source v1 to 0.01
Limiting fall time of source v1 to 0.01
Direct Newton iteration failed to find .op point.  (Use ".option noopiter" to skip.)
Starting Gmin stepping
Gmin = 10
Gmin = 1.07374
vernier = 0.5
vernier = 0.25
vernier = 0.125
vernier = 0.0625
Gmin = 1.08884
vernier = 0.03125
vernier = 0.015625
Gmin = 1.03922
vernier = 0.0078125
vernier = 0.00390625
Gmin = 1.02313
vernier = 0.00520833
vernier = 0.00260417
Gmin = 1.01616
vernier = 0.00347222
vernier = 0.00173611
vernier = 0.00231481
Gmin = 1.01205
vernier = 0.00115741
vernier = 0.00154321
vernier = 0.000771604
Gmin = 1.0104
vernier = 0.00102881
Gmin = 1.00812
vernier = 0.000514403
vernier = 0.00068587
Gmin = 1.00704
vernier = 0.000514403
vernier = 0.00068587
vernier = 0.000514402
Gmin = 1.00622
Gmin = 0
Gmin stepping failed

Starting source stepping with srcstepmethod=0
Source Step = 3.0303%
Source Step = 33.3333%
Source Step = 63.6364%
Source Step = 93.9394%
Source stepping succeeded in finding the operating point.


Date: Mon May 30 09:06:44 2016
Total elapsed time: 0.771 seconds.

tnom = 27
temp = 27
method = modified trap
totiter = 9459
traniter = 2671
tranpoints = 1190
accept = 1146
rejected = 44
matrix size = 34
fillins = 50
solver = Normal
Thread vector: 32.9/17.3[3] 7.7/4.2[3] 3.8/2.2[3] 0.3/0.8[1]  2592/500
Matrix Compiler1: 4.41 KB object code size  1.5/0.9/[0.5]
Matrix Compiler2: 4.59 KB object code size  0.9/1.0/[0.5]


