Circuit: * C:\Users\nicola\Documents\git\AnalogSynth\VCO\Simulation\VCO.asc

Per .tran options, skipping operating point for transient analysis.

Date: Sun Apr 17 15:46:20 2016
Total elapsed time: 2.321 seconds.

tnom = 27
temp = 27
method = modified trap
totiter = 215531
traniter = 215531
tranpoints = 63779
accept = 45468
rejected = 18311
matrix size = 24
fillins = 4
solver = Normal
Thread vector: 11.3/7.0[2] 3.1/2.4[2] 1.5/1.2[2] 0.1/0.8[1]  2592/500
Matrix Compiler1: 1.80 KB object code size  0.6/0.2/[0.1]
Matrix Compiler2: 2.49 KB object code size  0.3/0.3/[0.1]


