Circuit: * C:\Users\nicola\Documents\git\AnalogSynth\VCO\Simulation\VCO.asc

Per .tran options, skipping operating point for transient analysis.

Date: Tue Apr 19 22:21:53 2016
Total elapsed time: 0.180 seconds.

tnom = 27
temp = 27
method = modified trap
totiter = 6645
traniter = 6645
tranpoints = 2392
accept = 2012
rejected = 380
matrix size = 26
fillins = 4
solver = Normal
Thread vector: 11.3/10.0[2] 3.9/2.8[2] 1.9/1.7[2] 0.1/0.4[1]  2592/500
Matrix Compiler1: 1.88 KB object code size  0.9/0.4/[0.2]
Matrix Compiler2: 2.71 KB object code size  0.5/0.6/[0.2]


