Circuit: * C:\Users\nicola\Documents\git\AnalogSynth\VCO\Simulation\VCO.asc

Per .tran options, skipping operating point for transient analysis.

Date: Sun Apr 03 10:43:53 2016
Total elapsed time: 0.193 seconds.

tnom = 27
temp = 27
method = modified trap
totiter = 9660
traniter = 9660
tranpoints = 3739
accept = 2785
rejected = 954
matrix size = 25
fillins = 5
solver = Normal
Thread vector: 10.6/6.8[2] 3.1/2.3[2] 1.5/1.2[2] 0.2/0.6[1]  2592/500
Matrix Compiler1: 1.90 KB object code size  0.5/0.3/[0.1]
Matrix Compiler2: 2.61 KB object code size  0.3/0.4/[0.2]


